FoamFile
{
    version     2.0;
    format      ascii;
    class       volVectorField;
    object      U;
}

// Approximate operating conditions of Falcon 9 at an altitude of 60 km.
speed             (0 -2300 0); // m/s
temperature       247.15; // Kelvin
pressure          22; // Pascals
turbulentKE       1000; // k
turbulentEpsilon  25000; // epsilon
