FoamFile
{
    version     2.0;
    format      ascii;
    class       volScalarField;
    object      T;
}

#include        "inputs"

dimensions      [0 0 0 1 0 0 0];

internalField   uniform $temperature;

boundaryField
{
    inlet
    {
        type            inletOutlet;
        inletValue      $internalField;
        value           $internalField;
    }
    outlet
    {
        type            inletOutlet;
        inletValue      $internalField;
        value           $internalField;
    }
    rocket
    {
        type            zeroGradient;
    }
    side
    {
        type            slip;
    }
    wedge0
    {
        type            wedge;
    }
    wedge1
    {
        type            wedge;
    }
}
